
  MolAlign01231709203D

 24 27  0  0  0  0  0  0  0  0999 V2000
    7.4014    1.6817    0.4791 N   0  0  0  0  0  0  0  0  0  0  0  0
    6.1303    1.0716    0.3197 C   0  0  0  0  0  0  0  0  0  0  0  0
    5.7563    0.4521   -0.8137 N   0  0  0  0  0  0  0  0  0  0  0  0
    4.5457   -0.1187   -0.9402 C   0  0  0  0  0  0  0  0  0  0  0  0
    4.1390   -0.7795   -2.1408 N   0  0  0  0  0  0  0  0  0  0  0  0
    3.6483   -0.0783    0.1109 C   0  0  0  0  0  0  0  0  0  0  0  0
    2.4428   -0.6566   -0.0392 N   0  0  0  0  0  0  0  0  0  0  0  0
    1.5406   -0.6331    0.9752 C   0  0  0  0  0  0  0  0  0  0  0  0
    0.1999   -1.2643    0.8375 C   0  0  0  0  0  0  0  0  0  0  0  0
   -0.9252   -0.0210    0.1901 S   0  0  0  0  0  0  0  0  0  0  0  0
   -2.5813   -0.6614   -0.0217 C   0  0  0  0  0  0  0  0  0  0  0  0
   -2.9297   -1.9463    0.2788 C   0  0  0  0  0  0  0  0  0  0  0  0
   -4.2316   -2.3997    0.0974 C   0  0  0  0  0  0  0  0  0  0  0  0
   -5.1879   -1.5383   -0.3943 C   0  0  0  0  0  0  0  0  0  0  0  0
   -4.8674   -0.2334   -0.7077 C   0  0  0  0  0  0  0  0  0  0  0  0
   -3.5477    0.1875   -0.5120 C   0  0  0  0  0  0  0  0  0  0  0  0
   -3.2275    1.4866   -0.8236 C   0  0  0  0  0  0  0  0  0  0  0  0
   -4.1942    2.3390   -1.3151 C   0  0  0  0  0  0  0  0  0  0  0  0
   -5.5055    1.8957   -1.5019 C   0  0  0  0  0  0  0  0  0  0  0  0
   -5.8442    0.6003   -1.1959 C   0  0  0  0  0  0  0  0  0  0  0  0
    1.9295    0.0041    2.1366 C   0  0  0  0  0  0  0  0  0  0  0  0
    3.1359    0.5819    2.2849 N   0  0  0  0  0  0  0  0  0  0  0  0
    4.0185    0.5553    1.2832 C   0  0  0  0  0  0  0  0  0  0  0  0
    5.2384    1.0963    1.3263 N   0  0  0  0  0  0  0  0  0  0  0  0
  1  2  1  0
  2  3  2  0
  3  4  1  0
  4  5  1  0
  4  6  2  0
  6  7  1  0
  7  8  2  0
  8  9  1  0
  9 10  1  0
 10 11  1  0
 11 12  2  0
 12 13  1  0
 13 14  2  0
 14 15  1  0
 15 16  2  0
 16 17  1  0
 17 18  2  0
 18 19  1  0
 19 20  2  0
  8 21  1  0
 21 22  2  0
 22 23  1  0
 23 24  2  0
 24  2  1  0
 23  6  1  0
 16 11  1  0
 20 15  1  0
M  END
>  <ConformerNum>  (9) 
9

>  <EnergyAbs>  (9) 
76.998688243768797

>  <EnergyDelta>  (9) 
13.107743697820027

>  <StructureNum>  (9) 
1

$$$$

  MolAlign01231709203D

 26 28  0  0  0  0  0  0  0  0999 V2000
   -4.8347    1.9527   -1.3333 C   0  0  0  0  0  0  0  0  0  0  0  0
   -5.2781    0.6568   -1.0387 O   0  0  0  0  0  0  0  0  0  0  0  0
   -4.3693   -0.2692   -0.5436 C   0  0  0  0  0  0  0  0  0  0  0  0
   -3.0416    0.0618   -0.3366 C   0  0  0  0  0  0  0  0  0  0  0  0
   -2.1213   -0.8391    0.1536 C   0  0  0  0  0  0  0  0  0  0  0  0
   -0.7494   -0.4780    0.3613 N   0  0  0  0  0  0  0  0  0  0  0  0
    0.2311   -1.3812    0.8654 C   0  0  0  0  0  0  0  0  0  0  0  0
    1.5589   -0.7298    0.9737 C   0  0  0  0  0  0  0  0  0  0  0  0
    2.4653   -0.7374   -0.0476 N   0  0  0  0  0  0  0  0  0  0  0  0
    3.6556   -0.1305    0.1045 C   0  0  0  0  0  0  0  0  0  0  0  0
    4.5639   -0.1433   -0.9317 C   0  0  0  0  0  0  0  0  0  0  0  0
    4.1909   -0.8102   -2.1323 N   0  0  0  0  0  0  0  0  0  0  0  0
    5.7752    0.4675   -0.7931 N   0  0  0  0  0  0  0  0  0  0  0  0
    6.1271    1.0971    0.3417 C   0  0  0  0  0  0  0  0  0  0  0  0
    7.4054    1.7314    0.4626 N   0  0  0  0  0  0  0  0  0  0  0  0
    5.2372    1.1067    1.3499 N   0  0  0  0  0  0  0  0  0  0  0  0
    4.0193    0.5159    1.2669 C   0  0  0  0  0  0  0  0  0  0  0  0
    3.1334    0.5280    2.2767 N   0  0  0  0  0  0  0  0  0  0  0  0
    1.9356   -0.0803    2.1295 C   0  0  0  0  0  0  0  0  0  0  0  0
   -2.5751   -2.1084    0.4375 C   0  0  0  0  0  0  0  0  0  0  0  0
   -3.9161   -2.4457    0.2294 C   0  0  0  0  0  0  0  0  0  0  0  0
   -4.3563   -3.7360    0.5231 O   0  0  0  0  0  0  0  0  0  0  0  0
   -3.4535   -4.6823    1.0231 C   0  0  0  0  0  0  0  0  0  0  0  0
   -4.8247   -1.5320   -0.2620 C   0  0  0  0  0  0  0  0  0  0  0  0
   -6.1308   -1.9384   -0.4408 O   0  0  0  0  0  0  0  0  0  0  0  0
   -6.6327   -2.5054   -1.6274 C   0  0  0  0  0  0  0  0  0  0  0  0
  1  2  1  0
  2  3  1  0
  3  4  2  0
  4  5  1  0
  5  6  1  0
  6  7  1  0
  7  8  1  0
  8  9  2  0
  9 10  1  0
 10 11  2  0
 11 12  1  0
 11 13  1  0
 13 14  2  0
 14 15  1  0
 14 16  1  0
 16 17  2  0
 17 18  1  0
 18 19  2  0
  5 20  2  0
 20 21  1  0
 21 22  1  0
 22 23  1  0
 21 24  2  0
 24 25  1  0
 25 26  1  0
 24  3  1  0
 19  8  1  0
 17 10  1  0
M  END
>  <ConformerNum>  (16) 
16

>  <EnergyAbs>  (16) 
110.8726055738547

>  <EnergyDelta>  (16) 
29.60762686757117

>  <StructureNum>  (16) 
1

$$$$
